P86_A_400
          10052022263D 1   1.00000     0.00000     0
            
 46 47  0  0  0  0            999 V2000
   91.1810   91.8880  -46.3980 I   0  0  0  0  0  0  0  0  0  0  0  0
   91.9860   94.4580  -40.9270 I   0  0  0  0  0  0  0  0  0  0  0  0
   90.8570   96.9650  -42.6590 O   0  5  0  0  0  0  0  0  0  0  0  0
   90.4980   98.3810  -44.6910 N   0  3  0  0  0  0  0  0  0  0  0  0
   92.0320  102.4380  -44.4730 N   0  3  0  0  0  0  0  0  0  0  0  0
   92.9390  104.4100  -45.7850 C   0  0  0  0  0  0  0  0  0  0  0  0
   92.6400  103.7790  -42.4090 C   0  0  0  0  0  0  0  0  0  0  0  0
   92.9470  102.9030  -45.5930 C   0  0  0  0  0  0  0  0  0  0  0  0
   92.7530  102.4490  -43.1430 C   0  0  0  0  0  0  0  0  0  0  0  0
   89.5430   99.5450  -44.7170 C   0  0  0  0  0  0  0  0  0  0  0  0
   91.8210   98.7070  -45.3220 C   0  0  0  0  0  0  0  0  0  0  0  0
   89.9050   97.1660  -45.3350 C   0  0  0  0  0  0  0  0  0  0  0  0
   90.1750  100.7310  -44.0050 C   0  0  0  0  0  0  0  0  0  0  0  0
   92.4510   99.9400  -44.6950 C   0  0  0  0  0  0  0  0  0  0  0  0
   91.4810   93.4570  -43.7630 C   0  0  0  0  0  0  0  0  0  0  0  0
   90.5790   94.7670  -45.6090 C   0  0  0  0  0  0  0  0  0  0  0  0
   91.0680   93.5550  -45.0980 C   0  0  0  0  0  0  0  0  0  0  0  0
   91.3960   94.6040  -42.9570 C   0  0  0  0  0  0  0  0  0  0  0  0
   90.9090   95.8370  -43.4300 C   0  0  0  0  0  0  0  0  0  0  0  0
   91.4300  101.0810  -44.8020 C   0  0  0  0  0  0  0  0  0  0  0  0
   90.4990   95.8990  -44.7880 C   0  0  0  0  0  0  0  0  0  0  0  0
   93.5571  104.6541  -46.5322 H   0  0  0  0  0  0  0  0  0  0  0  0
   92.0121  104.7129  -46.0067 H   0  0  0  0  0  0  0  0  0  0  0  0
   93.2425  104.8550  -44.9425 H   0  0  0  0  0  0  0  0  0  0  0  0
   93.1343  103.7240  -41.5415 H   0  0  0  0  0  0  0  0  0  0  0  0
   93.0347  104.5051  -42.9721 H   0  0  0  0  0  0  0  0  0  0  0  0
   91.6768  103.9811  -42.2316 H   0  0  0  0  0  0  0  0  0  0  0  0
   92.6503  102.4724  -46.4454 H   0  0  0  0  0  0  0  0  0  0  0  0
   93.8807  102.6145  -45.3812 H   0  0  0  0  0  0  0  0  0  0  0  0
   93.7209  102.2567  -43.3048 H   0  0  0  0  0  0  0  0  0  0  0  0
   92.3630  101.7327  -42.5643 H   0  0  0  0  0  0  0  0  0  0  0  0
   88.6942   99.2909  -44.2534 H   0  0  0  0  0  0  0  0  0  0  0  0
   89.3438   99.7923  -45.6652 H   0  0  0  0  0  0  0  0  0  0  0  0
   91.6826   98.8740  -46.2982 H   0  0  0  0  0  0  0  0  0  0  0  0
   92.4386   97.9298  -45.2010 H   0  0  0  0  0  0  0  0  0  0  0  0
   90.0762   97.2052  -46.3195 H   0  0  0  0  0  0  0  0  0  0  0  0
   88.9190   97.1597  -45.1681 H   0  0  0  0  0  0  0  0  0  0  0  0
   90.4170  100.4842  -43.0666 H   0  0  0  0  0  0  0  0  0  0  0  0
   89.5433  101.5062  -43.9935 H   0  0  0  0  0  0  0  0  0  0  0  0
   93.2880  100.1831  -45.1852 H   0  0  0  0  0  0  0  0  0  0  0  0
   92.6666   99.7630  -43.7347 H   0  0  0  0  0  0  0  0  0  0  0  0
   91.8268   92.5942  -43.3941 H   0  0  0  0  0  0  0  0  0  0  0  0
   90.2863   94.8228  -46.5636 H   0  0  0  0  0  0  0  0  0  0  0  0
   91.1521  101.1213  -45.7618 H   0  0  0  0  0  0  0  0  0  0  0  0
   90.6709   98.1571  -43.7319 H   0  0  0  0  0  0  0  0  0  0  0  0
   91.2786  103.0926  -44.4106 H   0  0  0  0  0  0  0  0  0  0  0  0
  1 17  1  0  0  0  0
  2 18  1  0  0  0  0
  3 19  1  0  0  0  0
  4 10  1  0  0  0  0
  4 11  1  0  0  0  0
  4 12  1  0  0  0  0
  5  8  1  0  0  0  0
  5  9  1  0  0  0  0
  5 20  1  0  0  0  0
  6  8  1  0  0  0  0
  7  9  1  0  0  0  0
 10 13  1  0  0  0  0
 11 14  1  0  0  0  0
 12 21  1  0  0  0  0
 13 20  1  0  0  0  0
 14 20  1  0  0  0  0
 15 17  2  0  0  0  0
 15 18  1  0  0  0  0
 16 17  1  0  0  0  0
 16 21  2  0  0  0  0
 18 19  2  0  0  0  0
 19 21  1  0  0  0  0
  5 46  1  0  0  0  0
  6 22  1  0  0  0  0
  6 23  1  0  0  0  0
  6 24  1  0  0  0  0
  7 25  1  0  0  0  0
  7 26  1  0  0  0  0
  7 27  1  0  0  0  0
  8 28  1  0  0  0  0
  8 29  1  0  0  0  0
  9 30  1  0  0  0  0
  9 31  1  0  0  0  0
 10 32  1  0  0  0  0
 10 33  1  0  0  0  0
 11 34  1  0  0  0  0
 11 35  1  0  0  0  0
 12 36  1  0  0  0  0
 12 37  1  0  0  0  0
 13 38  1  0  0  0  0
 13 39  1  0  0  0  0
 14 40  1  0  0  0  0
 14 41  1  0  0  0  0
 15 42  1  0  0  0  0
 16 43  1  0  0  0  0
 20 44  1  0  0  0  0
  4 45  1  0  0  0  0
M  CHG  3   3  -1   4   1   5   1
M  END
$$$$
P86_B_400
          06062118453D 1   1.00000     0.00000     0
            
 47 48  0  0  0  0            999 V2000
  124.1890  101.1350  -46.3670 I   0  0  0  0  0  0  0  0  0  0  0  0
  125.1750  103.5250  -40.8850 I   0  0  0  0  0  0  0  0  0  0  0  0
  124.2110  106.1570  -42.5750 O   0  0  0  0  0  0  0  0  0  0  0  0
  123.9940  107.6590  -44.5320 N   0  3  0  0  0  0  0  0  0  0  0  0
  125.7270  111.6310  -44.3040 N   0  3  0  0  0  0  0  0  0  0  0  0
  126.4290  112.6780  -46.5050 C   0  0  0  0  0  0  0  0  0  0  0  0
  126.4710  113.0630  -42.3790 C   0  0  0  0  0  0  0  0  0  0  0  0
  126.8850  112.0210  -45.2090 C   0  0  0  0  0  0  0  0  0  0  0  0
  126.1050  111.6590  -42.8410 C   0  0  0  0  0  0  0  0  0  0  0  0
  123.1010  108.8790  -44.5310 C   0  0  0  0  0  0  0  0  0  0  0  0
  125.3480  107.9230  -45.1340 C   0  0  0  0  0  0  0  0  0  0  0  0
  123.3280  106.5080  -45.2320 C   0  0  0  0  0  0  0  0  0  0  0  0
  123.8010  110.0500  -43.8610 C   0  0  0  0  0  0  0  0  0  0  0  0
  126.0160  109.1500  -44.5270 C   0  0  0  0  0  0  0  0  0  0  0  0
  124.5910  102.6360  -43.7370 C   0  0  0  0  0  0  0  0  0  0  0  0
  123.7900  104.0460  -45.5580 C   0  0  0  0  0  0  0  0  0  0  0  0
  124.1850  102.7980  -45.0610 C   0  0  0  0  0  0  0  0  0  0  0  0
  124.5900  103.7660  -42.9090 C   0  0  0  0  0  0  0  0  0  0  0  0
  124.1940  105.0410  -43.3630 C   0  0  0  0  0  0  0  0  0  0  0  0
  125.0550  110.3290  -44.6830 C   0  0  0  0  0  0  0  0  0  0  0  0
  123.7890  105.1680  -44.7120 C   0  0  0  0  0  0  0  0  0  0  0  0
  123.9191  107.0374  -42.9487 H   0  0  0  0  0  0  0  0  0  0  0  0
  127.2279  112.9125  -47.0589 H   0  0  0  0  0  0  0  0  0  0  0  0
  125.8457  112.0441  -47.0128 H   0  0  0  0  0  0  0  0  0  0  0  0
  125.9140  113.5089  -46.2943 H   0  0  0  0  0  0  0  0  0  0  0  0
  126.7145  113.0420  -41.4093 H   0  0  0  0  0  0  0  0  0  0  0  0
  127.2492  113.3967  -42.9110 H   0  0  0  0  0  0  0  0  0  0  0  0
  125.6896  113.6724  -42.5133 H   0  0  0  0  0  0  0  0  0  0  0  0
  127.4051  111.1972  -45.4347 H   0  0  0  0  0  0  0  0  0  0  0  0
  127.4733  112.6620  -44.7161 H   0  0  0  0  0  0  0  0  0  0  0  0
  126.8898  111.0561  -42.6978 H   0  0  0  0  0  0  0  0  0  0  0  0
  125.3302  111.3318  -42.3001 H   0  0  0  0  0  0  0  0  0  0  0  0
  122.2591  108.6703  -44.0333 H   0  0  0  0  0  0  0  0  0  0  0  0
  122.8783  109.1247  -45.4744 H   0  0  0  0  0  0  0  0  0  0  0  0
  125.2408  108.0678  -46.1176 H   0  0  0  0  0  0  0  0  0  0  0  0
  125.9319  107.1267  -44.9759 H   0  0  0  0  0  0  0  0  0  0  0  0
  123.5376  106.5622  -46.2083 H   0  0  0  0  0  0  0  0  0  0  0  0
  122.3396  106.5806  -45.0987 H   0  0  0  0  0  0  0  0  0  0  0  0
  124.0488  109.8134  -42.9215 H   0  0  0  0  0  0  0  0  0  0  0  0
  123.2047  110.8528  -43.8563 H   0  0  0  0  0  0  0  0  0  0  0  0
  126.8724  109.3432  -45.0059 H   0  0  0  0  0  0  0  0  0  0  0  0
  126.2046  108.9905  -43.5580 H   0  0  0  0  0  0  0  0  0  0  0  0
  124.8738  101.7419  -43.3896 H   0  0  0  0  0  0  0  0  0  0  0  0
  123.5091  104.1387  -46.5133 H   0  0  0  0  0  0  0  0  0  0  0  0
  124.7885  110.3864  -45.6451 H   0  0  0  0  0  0  0  0  0  0  0  0
  124.1360  107.3898  -43.5794 H   0  0  0  0  0  0  0  0  0  0  0  0
  125.0342  112.3423  -44.4224 H   0  0  0  0  0  0  0  0  0  0  0  0
  1 17  1  0  0  0  0
  2 18  1  0  0  0  0
  3 19  1  0  0  0  0
  4 10  1  0  0  0  0
  4 11  1  0  0  0  0
  4 12  1  0  0  0  0
  5  8  1  0  0  0  0
  5  9  1  0  0  0  0
  5 20  1  0  0  0  0
  6  8  1  0  0  0  0
  7  9  1  0  0  0  0
 10 13  1  0  0  0  0
 11 14  1  0  0  0  0
 12 21  1  0  0  0  0
 13 20  1  0  0  0  0
 14 20  1  0  0  0  0
 15 17  2  0  0  0  0
 15 18  1  0  0  0  0
 16 17  1  0  0  0  0
 16 21  2  0  0  0  0
 18 19  2  0  0  0  0
 19 21  1  0  0  0  0
  3 22  1  0  0  0  0
  6 23  1  0  0  0  0
  6 24  1  0  0  0  0
  6 25  1  0  0  0  0
  7 26  1  0  0  0  0
  7 27  1  0  0  0  0
  7 28  1  0  0  0  0
  8 29  1  0  0  0  0
  8 30  1  0  0  0  0
  9 31  1  0  0  0  0
  9 32  1  0  0  0  0
 10 33  1  0  0  0  0
 10 34  1  0  0  0  0
 11 35  1  0  0  0  0
 11 36  1  0  0  0  0
 12 37  1  0  0  0  0
 12 38  1  0  0  0  0
 13 39  1  0  0  0  0
 13 40  1  0  0  0  0
 14 41  1  0  0  0  0
 14 42  1  0  0  0  0
 15 43  1  0  0  0  0
 16 44  1  0  0  0  0
 20 45  1  0  0  0  0
  4 46  1  0  0  0  0
  5 47  1  0  0  0  0
M  CHG  2   4   1   5   1
M  END
$$$$
